# *****************************************
# Open boundaries..
# *****************************************
 &OBCS_PARM01
# OBCSfixTopo=.FALSE.,
 OB_Jsouth = 550*1,
 OB_Jnorth = 550*700,
 OB_Ieast  = 700*550,
 OB_Iwest  = 700*1, 
#
 useOBCSprescribe = .TRUE.,
 useOBCSbalance = .TRUE.,
 useOBCSsponge =.TRUE.,
 useSeaiceSponge=.TRUE.,
# useLinearSponge = .TRUE.,
 useOBCStides = .TRUE.,
#
# OBCS_balanceFacE = -1.,
# OBCS_balanceFacS = -1.,
#
# regular boundary conditions
#
 OBNuFile = '/nobackupp11/mpoinell/thwaites/repository_bin_files/OBNu.bin',
 OBNvFile = '/nobackupp11/mpoinell/thwaites/repository_bin_files/OBNv.bin',
 OBNtFile = '/nobackupp11/mpoinell/thwaites/repository_bin_files/OBNt.stable',
 OBNsFile = '/nobackupp11/mpoinell/thwaites/repository_bin_files/OBNs.stable',
#
 OBEuFile = '/nobackupp11/mpoinell/thwaites/repository_bin_files/OBEu.bin',
 OBEvFile = '/nobackupp11/mpoinell/thwaites/repository_bin_files/OBEv.bin',
 OBEtFile = '/nobackupp11/mpoinell/thwaites/repository_bin_files/OBEt.stable',
 OBEsFile = '/nobackupp11/mpoinell/thwaites/repository_bin_files/OBEs.stable',
#
 OBWuFile = '/nobackupp11/mpoinell/thwaites/repository_bin_files/OBWu.bin',
 OBWvFile = '/nobackupp11/mpoinell/thwaites/repository_bin_files/OBWv.bin',
 OBWtFile = '/nobackupp11/mpoinell/thwaites/repository_bin_files/OBWt.stable',
 OBWsFile = '/nobackupp11/mpoinell/thwaites/repository_bin_files/OBWs.stable',
#
# OBNuFile = '',
# OBNvFile = '',
# OBNtFile = '',
# OBNsFile = '',
#
# OBEuFile = '',
# OBEvFile = '',
# OBEtFile = '',
# OBEsFile = '',
#
# OBWuFile = '',
# OBWvFile = '',
# OBWtFile = '',
# OBWsFile = '',
#
# sea ice boundary conditions
#
 OBNaFile   ='/nobackupp11/mpoinell/thwaites/repository_bin_files/OBNsia.bin',
 OBNhFile   ='/nobackupp11/mpoinell/thwaites/repository_bin_files/OBNsih.bin',
 OBNsnFile  ='/nobackupp11/mpoinell/thwaites/repository_bin_files/OBNsis.bin',
#
 OBEaFile   ='/nobackupp11/mpoinell/thwaites/repository_bin_files/OBEsia.bin',
 OBEhFile   ='/nobackupp11/mpoinell/thwaites/repository_bin_files/OBEsih.bin',
 OBEsnFile  ='/nobackupp11/mpoinell/thwaites/repository_bin_files/OBEsis.bin',
#
 OBWaFile   ='/nobackupp11/mpoinell/thwaites/repository_bin_files/OBWsia.bin',
 OBWhFile   ='/nobackupp11/mpoinell/thwaites/repository_bin_files/OBWsih.bin',
 OBWsnFile  ='/nobackupp11/mpoinell/thwaites/repository_bin_files/OBWsis.bin',
#
# *****************************************
# Tidal BC parameters
# *****************************************
#
###components   = M2       S2     N2       K2       K1      O1       P1       Q1       Mf         Mm
###periods (hr) = 12.4206  12     12.6583  11.9672  23.9345 25.8193  24.0659  26.8684  327.8599   661.31
###period(sec)  = 44714.165 43200.001 45570.054 43082.05 86164.077 92949.636 86637.2 96726.086 1180295.5 2380715.9
#
 tidalPeriod  = 44714.165, 43200.001, 45570.054, 43082.05, 86164.077, 92949.636, 86637.2, 96726.086, 1180295.5, 2380715.9,
 OBNamFile='/nobackupp11/mpoinell/thwaites/repository_bin_files/OBNam.obcs.tide',
 OBNphFile='/nobackupp11/mpoinell/thwaites/repository_bin_files/OBNph.obcs.tide',
#
 OBEamFile='/nobackupp11/mpoinell/thwaites/repository_bin_files/OBEam.obcs.tide',
 OBEphFile='/nobackupp11/mpoinell/thwaites/repository_bin_files/OBEph.obcs.tide',
#
# OBWamFile='/nobackupp11/mpoinell/thwaites/repository_bin_files/OBWam.obcs.tide',
# OBWphFile='/nobackupp11/mpoinell/thwaites/repository_bin_files/OBWph.obcs.tide',
#
# OBWamFile='/nobackupp11/mpoinell/thwaites/repository_bin_files/OBWam.obcs.tide',
# OBWphFile='/nobackupp11/mpoinell/thwaites/repository_bin_files/OBWph.obcs.tide',
#
# OBCS_monitorFreq= 600.,
# OBCS_monSelect = 1,
 &
# *****************************************
# OBCS Sponge Layer Parameters.
# *****************************************
 &OBCS_PARM03
 Urelaxobcsinner=1296000.E0,
 Urelaxobcsbound=43200.E0,
#
 Vrelaxobcsinner=1296000.E0,
 Vrelaxobcsbound=43200.E0,
#
 spongeThickness=6, 
 &
# *****************************************
# SEAICE Sponge Layer Parameters.
# *****************************************
 &OBCS_PARM05
 Arelaxobcsinner  = 1296000.E0,
 Arelaxobcsbound  = 43200.E0,
#
 Hrelaxobcsinner  = 1296000.E0,
 Hrelaxobcsbound  = 43200.E0,
 seaiceSpongeThickness = 6,
&

