# ====================
# | Model parameters |
# ====================
#
# Continuous equation parameters
 &PARM01
 Sref = 46*34.4,
 viscAr=1.0e-4,
 no_slip_sides=.FALSE.,
 no_slip_bottom=.TRUE.,
 diffKrT=5.456e-6,
 diffKrS=5.456e-6 ,
 rhoConst= 1.028900e+03,
 rhoNil= 1.028900e+03,
 rhoConstFresh=999.8,
 eosType='JMD95Z',
 hFacMin=0.3,
 hFacInf=0.1,
 hFacSup=5.,
# select_rStar=2,
# nonlinFreeSurf=4,
 implicitDiffusion=.TRUE.,
 implicitViscosity=.TRUE.,
 viscC4Leith=2.0,
 viscC4Leithd=2.0,
 useAreaViscLength=.TRUE.,
 sideDragFactor=0.,
 highOrderVorticity  = .TRUE.,
 bottomDragQuadratic = 0.0021,
 tempAdvScheme=7,
 saltAdvScheme=7,
 StaggerTimeStep=.TRUE.,
 multiDimAdvection=.TRUE.,
 vectorInvariantMomentum=.TRUE.,
 implicitFreeSurface=.TRUE.,
 exactConserv=.TRUE.,
 debuglevel=-1,
 convertFW2Salt=33.4,
 useSingleCPUio=.TRUE.,
 globalFiles=.TRUE.,
 /

# Elliptic solver parameters
 &PARM02
 cg2dMaxIters=300,
 cg2dTargetResWunit=1.E-12,
 /

# Time stepping parameters
 &PARM03
# nIter0=560448,
#    nIter0=1,
#   nIter0=336960,
#   nIter0=668160,
#   nIter0=1010880,
#    nIter0=1368000,
#    nIter0=1722240,
#    nIter0=2079360,
#     nIter0=2439360,
#     nIter0=2796480,
#    nIter0=3113280,
#    nIter0=3473280,
#    nIter0=3767040,
###     nIter0=3968640,
#     nIter0=4294800,
#     nIter0=4672800,
#     nIter0=5054400,
#     nIter0=5432400,
#      nIter0=5810400,
#      nIter0=5871600,
#       nIter0=5806800,
#      nIter0=4910400,
#      nIter0=3968640,
#       nIter0=4338000,
#       nIter0=4716000,
#	nIter0=5094000,
#	nIter0=5472000,
	nIter0=5853600,
#datenum(2013,1,1)-datenum(2001,1,1) *86400 
# endtime=63072000,
# endtime=4743040000,
# endtime=15768000,
# endtime=2628000,
# endtime=432000,
  endtime=4743040000,
#datenum(2013,1,1)-datenum(2002,1,1) *86400 
# endtime=347155200,
##2 hrs for FWD:
#datenum(2001,9,1,12,0,0)-datenum(2001,1,1,12,0,0) *86400 
# endtime=20995200.,
##2 hrs for ADJ:
#datenum(2001,3,1,12,0,0)-datenum(2001,1,1,12,0,0) *86400 
# endtime=5097600.,
 forcing_In_AB=.FALSE.,
 momDissip_In_AB=.FALSE.,
#when using the cd scheme:
# epsAB_CD = 0.25,
# tauCD=172800.0,
 deltaTmom     =120,
 deltaTtracer  =120,
 deltaTfreesurf=120,
 deltaTClock   =120,
#when using ab2:
 abEps = 0.1,
#when using ab3:
# doAB_onGtGs=.FALSE.,
# alph_AB=0.5,
# beta_AB=0.281105,
  pChkptFreq  =432000.0,
  chkptFreq   =432000.0,
  taveFreq    =2628000.0,
  dumpFreq    =2628000.0,
  monitorFreq  =150.0,
# monitorFreq = 6307200.0,
 dumpInitAndLast = .TRUE.,
 pickupStrictlyMatch=.FALSE.,
 /

# Gridding parameters
 &PARM04
 usingCartesianGrid=.FALSE.,
 usingSphericalPolarGrid=.FALSE.,
 usingCurvilinearGrid=.TRUE.,
 delR = 
     10.00, 10.00, 10.00, 10.00, 10.00, 10.00, 10.00, 10.01,
     10.03, 10.11, 10.32, 10.80, 11.76, 13.42, 16.04, 19.82, 
     22.00, 22.00, 22.00, 22.00, 22.00, 22.00, 22.00, 22.00,
     22.00, 22.00, 22.00, 22.00, 22.00,	22.00, 22.00, 22.00,
     22.00, 22.00, 22.00, 22.00, 22.00,	22.00, 22.00, 22.00,
     22.00, 22.00, 22.00, 22.00, 22.00, 30.00, 45.00, 62.72,
     98.25, 99.25,100.01, 101.33,104.56,111.33,122.83,139.09,
     158.94,180.83,203.55,226.50,249.50,272.50,295.50,318.50,
     341.50,364.50,387.50,410.50,433.50,456.50,
 /

# Input datasets
 &PARM05
#bathyFile      ='REG_AMS_DEPTH',
 bathyFile      ='1080_BATHY_2_rignot.bin',
 hydrogThetaFile='1080_T_JAN_WOA2013_highvert.bin',
 hydrogSaltFile ='1080_S_JAN_WOA2013_highvert.bin',
# viscA4Dfile    ='viscA4Dfld_eccollc_90x50.bin',
# viscA4Zfile    ='viscA4Zfld_eccollc_90x50.bin',
checkIniTemp=.FALSE.
checkIniSalt=.FALSE.
#
 /
